LTspice 26.0.1 for Windows
Circuit: C:\users\darko\Desktop\projects\signal-generator\simulation\pwm-rlc-filter.net
Start Time: Sat Jul 11 07:57:26 2026
solver = Normal
Maximum thread count: 12
tnom = 27
temp = 27
method = trap
Compress1stOrder = true
Compress2ndOrder = true
.OP point found by inspection.
.OP point found by inspection.
Total elapsed time: 0.178 seconds.

Files loaded:
C:\users\darko\Desktop\projects\signal-generator\simulation\pwm-rlc-filter.net

